114       
can
C 1.902858 2.210375 2.199372
C 1.856520 0.711106 2.340896
H 1.768194 1.198395 1.369892
C 1.855481 0.142972 3.665874
H 1.848219 1.229045 3.758024
C 1.896229 0.832144 4.846014
H 1.775872 -0.244866 4.729129
C 1.902012 0.184123 6.123855
H 1.914273 1.268773 6.231014
C 1.947013 0.766093 7.365839
H 1.913403 1.513860 6.573491
C 1.996542 2.255241 7.581704
C 1.949185 -0.104923 8.525012
H 1.608117 0.798930 9.029810
C 2.038358 0.295364 9.820340
H 1.379697 -0.529464 9.548450
C 2.088869 -0.558979 11.006327
C 1.327278 -1.691540 11.148173
C 0.339727 -2.192705 10.126949
C 1.374552 -2.510534 12.392799
O 0.699048 -3.520365 12.510512
H 0.530607 -3.686655 13.440875
C 2.247564 -2.029128 13.534570
C 3.428005 -1.205098 13.048257
C 3.011500 -0.041662 12.129066
C 4.303957 0.568973 11.550982
C 2.257676 1.042023 12.930617
C 1.820560 -0.146109 1.264130
H 1.818557 0.932863 1.109484
C 1.825855 0.187800 -0.123842
H 1.717628 -0.800192 0.323663
C 1.795933 -0.746121 -1.127100
H 1.742511 0.247650 -1.571697
C 1.812948 -0.415585 -2.515745
H 1.735072 -1.491189 -2.357279
C 1.794641 -1.277245 -3.589481
H 1.706390 -1.741507 -2.607253
C 1.741716 -2.775787 -3.442100
C 1.831701 -0.716195 -4.917032
H 1.757681 -1.799968 -5.006782
C 1.833071 -1.413727 -6.092931
H 1.764998 -0.330788 -5.989449
C 1.881599 -0.777512 -7.375734
H 1.826794 -1.861756 -7.473255
C 1.901248 -1.372967 -8.612030
H 1.796283 -2.099522 -7.806300
C 1.871252 -2.864711 -8.813538
C 1.958139 -0.515315 -9.779788
H 1.564327 -1.401103 -10.278176
C 2.039672 -0.934373 -11.069694
H 1.415936 -0.077462 -10.815222
C 2.145732 -0.098834 -12.265305
C 1.444179 1.068782 -12.430160
C 0.475169 1.634116 -11.424798
C 1.544127 1.866365 -13.685610
O 0.923098 2.908073 -13.823385
H 0.747652 3.055732 -14.755595
C 2.400676 1.323597 -14.812155
C 3.535637 0.451796 -14.301342
C 3.054680 -0.676160 -13.369698
C 4.310487 -1.337623 -12.766808
C 2.261109 -1.736411 -14.164079
H 2.815491 2.619392 2.664876
H 1.885487 2.537992 1.153063
H 1.045927 2.678469 2.712203
H 1.822749 -0.951776 3.717859
H 1.929616 1.923850 4.819734
H 1.868957 -0.911577 6.096108
H 1.145954 2.591441 8.198081
H 2.914353 2.542958 8.122464
H 1.972579 2.819975 6.641776
H 1.913661 -1.174556 8.305762
H 2.159320 1.365564 10.012065
H 0.804400 -2.910382 9.428428
H -0.463300 -2.740230 10.638350
H -0.083408 -1.373925 9.529006
H 1.599215 -1.433619 14.202786
H 2.559041 -2.910192 14.115113
H 4.002476 -0.804540 13.900167
H 4.115779 -1.860058 12.485719
H 4.814663 -0.144177 10.885533
H 4.118109 1.489113 10.978696
H 4.992779 0.823232 12.372977
H 2.905184 1.454444 13.721921
H 1.950485 1.876634 12.281483
H 1.348413 0.639662 13.400595
H 1.788096 -1.218363 1.491731
H 1.859718 1.243582 -0.411549
H 1.762010 -1.801545 -0.838152
H 1.850099 0.655814 -2.746612
H 0.848407 -3.186179 -3.942251
H 2.618361 -3.247588 -3.917101
H 1.715827 -3.098162 -2.394377
H 1.866186 0.378213 -4.974670
H 1.800241 -2.505197 -6.059054
H 1.909780 0.318525 -7.357718
H 1.007618 -3.160089 -9.432645
H 2.775485 -3.206400 -9.345667
H 1.811135 -3.418464 -7.868762
H 1.975153 0.557112 -9.572227
H 2.109461 -2.011498 -11.247979
H 0.971528 2.333031 -10.729040
H -0.291762 2.218900 -11.950102
H 0.002015 0.846364 -10.822614
H 1.729532 0.748405 -15.475689
H 2.759217 2.178354 -15.404755
H 4.098773 0.011672 -15.141282
H 4.248168 1.082070 -13.741427
H 4.844639 -0.640067 -12.103309
H 4.075673 -2.241188 -12.185991
H 4.997273 -1.632805 -13.576706
H 2.899396 -2.191183 -14.939492
H 1.906731 -2.545176 -13.506306
H 1.377806 -1.300565 -14.653458
